# generated using pymatgen
data_ID_0
_symmetry_space_group_name_H-M   Ibam
_cell_length_a   5.36999060
_cell_length_b   5.69722635
_cell_length_c   10.35990510
_cell_angle_alpha   90.00000000
_cell_angle_beta   90.00000000
_cell_angle_gamma   90.00000000
_symmetry_Int_Tables_number   72
_chemical_formula_structural   Si
_cell_volume   316.951474729
_cell_formula_units_Z   16
loop_
 _symmetry_equiv_pos_site_id
 _symmetry_equiv_pos_as_xyz
  1  'x, y, z'
  2  '-x, -y, -z'
  3  '-x, -y, z'
  4  'x, y, -z'
  5  'x+1/2, -y+1/2, -z'
  6  '-x+1/2, y+1/2, z'
  7  '-x+1/2, y+1/2, -z'
  8  'x+1/2, -y+1/2, z'
  9  'x+1/2, y+1/2, z+1/2'
  10  '-x+1/2, -y+1/2, -z+1/2'
  11  '-x+1/2, -y+1/2, z+1/2'
  12  'x+1/2, y+1/2, -z+1/2'
  13  'x, -y, -z+1/2'
  14  '-x, y, z+1/2'
  15  '-x, y, -z+1/2'
  16  'x, -y, z+1/2'
loop_
 _atom_site_type_symbol
 _atom_site_label
 _atom_site_symmetry_multiplicity
 _atom_site_fract_x
 _atom_site_fract_y
 _atom_site_fract_z
 _atom_site_occupancy
  Si  Si1  8  0.000000  0.500000  0.135487  1
  Si  Si2  8  0.155511  0.154766  0.000000  1
# generated using pymatgen
data_ID_1
_symmetry_space_group_name_H-M   P4_2/mmc
_cell_length_a   4.57665559
_cell_length_b   4.57665559
_cell_length_c   9.25412337
_cell_angle_alpha   90.00000000
_cell_angle_beta   90.00000000
_cell_angle_gamma   90.00000000
_symmetry_Int_Tables_number   131
_chemical_formula_structural   Si
_cell_volume   193.83479919
_cell_formula_units_Z   8
loop_
 _symmetry_equiv_pos_site_id
 _symmetry_equiv_pos_as_xyz
  1  'x, y, z'
  2  '-x, -y, -z'
  3  '-y, x, z+1/2'
  4  'y, -x, -z+1/2'
  5  '-x, -y, z'
  6  'x, y, -z'
  7  'y, -x, z+1/2'
  8  '-y, x, -z+1/2'
  9  'x, -y, -z'
  10  '-x, y, z'
  11  '-y, -x, -z+1/2'
  12  'y, x, z+1/2'
  13  '-x, y, -z'
  14  'x, -y, z'
  15  'y, x, -z+1/2'
  16  '-y, -x, z+1/2'
loop_
 _atom_site_type_symbol
 _atom_site_label
 _atom_site_symmetry_multiplicity
 _atom_site_fract_x
 _atom_site_fract_y
 _atom_site_fract_z
 _atom_site_occupancy
  Si  Si1  4  0.252774  0.500000  0.000000  1
  Si  Si2  2  0.000000  0.000000  0.000000  1
  Si  Si3  2  0.000000  0.000000  0.250000  1
# generated using pymatgen
data_ID_2
_symmetry_space_group_name_H-M   Fm-3m
_cell_length_a   8.59167762
_cell_length_b   8.59167762
_cell_length_c   8.59167762
_cell_angle_alpha   90.00000000
_cell_angle_beta   90.00000000
_cell_angle_gamma   90.00000000
_symmetry_Int_Tables_number   225
_chemical_formula_structural   Si
_cell_volume   634.211216188
_cell_formula_units_Z   32
loop_
 _symmetry_equiv_pos_site_id
 _symmetry_equiv_pos_as_xyz
  1  'x, y, z'
  2  '-x, -y, -z'
  3  'z, y, -x'
  4  '-z, -y, x'
  5  '-x, y, -z'
  6  'x, -y, z'
  7  '-z, y, x'
  8  'z, -y, -x'
  9  'x, -y, -z'
  10  '-x, y, z'
  11  'z, -y, x'
  12  '-z, y, -x'
  13  '-x, -y, z'
  14  'x, y, -z'
  15  '-z, -y, -x'
  16  'z, y, x'
  17  'y, -z, -x'
  18  '-y, z, x'
  19  'y, x, -z'
  20  '-y, -x, z'
  21  'y, z, x'
  22  '-y, -z, -x'
  23  'y, -x, z'
  24  '-y, x, -z'
  25  '-y, z, -x'
  26  'y, -z, x'
  27  '-y, -x, -z'
  28  'y, x, z'
  29  '-y, -z, x'
  30  'y, z, -x'
  31  '-y, x, z'
  32  'y, -x, -z'
  33  '-z, x, -y'
  34  'z, -x, y'
  35  'x, z, -y'
  36  '-x, -z, y'
  37  'z, -x, -y'
  38  '-z, x, y'
  39  '-x, -z, -y'
  40  'x, z, y'
  41  'z, x, y'
  42  '-z, -x, -y'
  43  '-x, z, y'
  44  'x, -z, -y'
  45  '-z, -x, y'
  46  'z, x, -y'
  47  'x, -z, y'
  48  '-x, z, -y'
  49  'x+1/2, y+1/2, z'
  50  '-x+1/2, -y+1/2, -z'
  51  'z+1/2, y+1/2, -x'
  52  '-z+1/2, -y+1/2, x'
  53  '-x+1/2, y+1/2, -z'
  54  'x+1/2, -y+1/2, z'
  55  '-z+1/2, y+1/2, x'
  56  'z+1/2, -y+1/2, -x'
  57  'x+1/2, -y+1/2, -z'
  58  '-x+1/2, y+1/2, z'
  59  'z+1/2, -y+1/2, x'
  60  '-z+1/2, y+1/2, -x'
  61  '-x+1/2, -y+1/2, z'
  62  'x+1/2, y+1/2, -z'
  63  '-z+1/2, -y+1/2, -x'
  64  'z+1/2, y+1/2, x'
  65  'y+1/2, -z+1/2, -x'
  66  '-y+1/2, z+1/2, x'
  67  'y+1/2, x+1/2, -z'
  68  '-y+1/2, -x+1/2, z'
  69  'y+1/2, z+1/2, x'
  70  '-y+1/2, -z+1/2, -x'
  71  'y+1/2, -x+1/2, z'
  72  '-y+1/2, x+1/2, -z'
  73  '-y+1/2, z+1/2, -x'
  74  'y+1/2, -z+1/2, x'
  75  '-y+1/2, -x+1/2, -z'
  76  'y+1/2, x+1/2, z'
  77  '-y+1/2, -z+1/2, x'
  78  'y+1/2, z+1/2, -x'
  79  '-y+1/2, x+1/2, z'
  80  'y+1/2, -x+1/2, -z'
  81  '-z+1/2, x+1/2, -y'
  82  'z+1/2, -x+1/2, y'
  83  'x+1/2, z+1/2, -y'
  84  '-x+1/2, -z+1/2, y'
  85  'z+1/2, -x+1/2, -y'
  86  '-z+1/2, x+1/2, y'
  87  '-x+1/2, -z+1/2, -y'
  88  'x+1/2, z+1/2, y'
  89  'z+1/2, x+1/2, y'
  90  '-z+1/2, -x+1/2, -y'
  91  '-x+1/2, z+1/2, y'
  92  'x+1/2, -z+1/2, -y'
  93  '-z+1/2, -x+1/2, y'
  94  'z+1/2, x+1/2, -y'
  95  'x+1/2, -z+1/2, y'
  96  '-x+1/2, z+1/2, -y'
  97  'x+1/2, y, z+1/2'
  98  '-x+1/2, -y, -z+1/2'
  99  'z+1/2, y, -x+1/2'
  100  '-z+1/2, -y, x+1/2'
  101  '-x+1/2, y, -z+1/2'
  102  'x+1/2, -y, z+1/2'
  103  '-z+1/2, y, x+1/2'
  104  'z+1/2, -y, -x+1/2'
  105  'x+1/2, -y, -z+1/2'
  106  '-x+1/2, y, z+1/2'
  107  'z+1/2, -y, x+1/2'
  108  '-z+1/2, y, -x+1/2'
  109  '-x+1/2, -y, z+1/2'
  110  'x+1/2, y, -z+1/2'
  111  '-z+1/2, -y, -x+1/2'
  112  'z+1/2, y, x+1/2'
  113  'y+1/2, -z, -x+1/2'
  114  '-y+1/2, z, x+1/2'
  115  'y+1/2, x, -z+1/2'
  116  '-y+1/2, -x, z+1/2'
  117  'y+1/2, z, x+1/2'
  118  '-y+1/2, -z, -x+1/2'
  119  'y+1/2, -x, z+1/2'
  120  '-y+1/2, x, -z+1/2'
  121  '-y+1/2, z, -x+1/2'
  122  'y+1/2, -z, x+1/2'
  123  '-y+1/2, -x, -z+1/2'
  124  'y+1/2, x, z+1/2'
  125  '-y+1/2, -z, x+1/2'
  126  'y+1/2, z, -x+1/2'
  127  '-y+1/2, x, z+1/2'
  128  'y+1/2, -x, -z+1/2'
  129  '-z+1/2, x, -y+1/2'
  130  'z+1/2, -x, y+1/2'
  131  'x+1/2, z, -y+1/2'
  132  '-x+1/2, -z, y+1/2'
  133  'z+1/2, -x, -y+1/2'
  134  '-z+1/2, x, y+1/2'
  135  '-x+1/2, -z, -y+1/2'
  136  'x+1/2, z, y+1/2'
  137  'z+1/2, x, y+1/2'
  138  '-z+1/2, -x, -y+1/2'
  139  '-x+1/2, z, y+1/2'
  140  'x+1/2, -z, -y+1/2'
  141  '-z+1/2, -x, y+1/2'
  142  'z+1/2, x, -y+1/2'
  143  'x+1/2, -z, y+1/2'
  144  '-x+1/2, z, -y+1/2'
  145  'x, y+1/2, z+1/2'
  146  '-x, -y+1/2, -z+1/2'
  147  'z, y+1/2, -x+1/2'
  148  '-z, -y+1/2, x+1/2'
  149  '-x, y+1/2, -z+1/2'
  150  'x, -y+1/2, z+1/2'
  151  '-z, y+1/2, x+1/2'
  152  'z, -y+1/2, -x+1/2'
  153  'x, -y+1/2, -z+1/2'
  154  '-x, y+1/2, z+1/2'
  155  'z, -y+1/2, x+1/2'
  156  '-z, y+1/2, -x+1/2'
  157  '-x, -y+1/2, z+1/2'
  158  'x, y+1/2, -z+1/2'
  159  '-z, -y+1/2, -x+1/2'
  160  'z, y+1/2, x+1/2'
  161  'y, -z+1/2, -x+1/2'
  162  '-y, z+1/2, x+1/2'
  163  'y, x+1/2, -z+1/2'
  164  '-y, -x+1/2, z+1/2'
  165  'y, z+1/2, x+1/2'
  166  '-y, -z+1/2, -x+1/2'
  167  'y, -x+1/2, z+1/2'
  168  '-y, x+1/2, -z+1/2'
  169  '-y, z+1/2, -x+1/2'
  170  'y, -z+1/2, x+1/2'
  171  '-y, -x+1/2, -z+1/2'
  172  'y, x+1/2, z+1/2'
  173  '-y, -z+1/2, x+1/2'
  174  'y, z+1/2, -x+1/2'
  175  '-y, x+1/2, z+1/2'
  176  'y, -x+1/2, -z+1/2'
  177  '-z, x+1/2, -y+1/2'
  178  'z, -x+1/2, y+1/2'
  179  'x, z+1/2, -y+1/2'
  180  '-x, -z+1/2, y+1/2'
  181  'z, -x+1/2, -y+1/2'
  182  '-z, x+1/2, y+1/2'
  183  '-x, -z+1/2, -y+1/2'
  184  'x, z+1/2, y+1/2'
  185  'z, x+1/2, y+1/2'
  186  '-z, -x+1/2, -y+1/2'
  187  '-x, z+1/2, y+1/2'
  188  'x, -z+1/2, -y+1/2'
  189  '-z, -x+1/2, y+1/2'
  190  'z, x+1/2, -y+1/2'
  191  'x, -z+1/2, y+1/2'
  192  '-x, z+1/2, -y+1/2'
loop_
 _atom_site_type_symbol
 _atom_site_label
 _atom_site_symmetry_multiplicity
 _atom_site_fract_x
 _atom_site_fract_y
 _atom_site_fract_z
 _atom_site_occupancy
  Si  Si1  32  0.145937  0.145937  0.145937  1
# generated using pymatgen
data_ID_3
_symmetry_space_group_name_H-M   P6_3/mmc
_cell_length_a   3.85661480
_cell_length_b   3.85661480
_cell_length_c   12.66499925
_cell_angle_alpha   90.00000000
_cell_angle_beta   90.00000000
_cell_angle_gamma   120.00000000
_symmetry_Int_Tables_number   194
_chemical_formula_structural   Si
_cell_volume   163.135443284
_cell_formula_units_Z   8
loop_
 _symmetry_equiv_pos_site_id
 _symmetry_equiv_pos_as_xyz
  1  'x, y, z'
  2  '-x, -y, -z'
  3  'y, -x+y, z+1/2'
  4  '-y, x-y, -z+1/2'
  5  '-x+y, -x, z'
  6  'x-y, x, -z'
  7  '-x, -y, z+1/2'
  8  'x, y, -z+1/2'
  9  '-y, x-y, z'
  10  'y, -x+y, -z'
  11  'x-y, x, z+1/2'
  12  '-x+y, -x, -z+1/2'
  13  '-x+y, y, -z+1/2'
  14  'x-y, -y, z+1/2'
  15  '-x, -x+y, -z'
  16  'x, x-y, z'
  17  '-y, -x, -z+1/2'
  18  'y, x, z+1/2'
  19  'x-y, -y, -z'
  20  '-x+y, y, z'
  21  'x, x-y, -z+1/2'
  22  '-x, -x+y, z+1/2'
  23  'y, x, -z'
  24  '-y, -x, z'
loop_
 _atom_site_type_symbol
 _atom_site_label
 _atom_site_symmetry_multiplicity
 _atom_site_fract_x
 _atom_site_fract_y
 _atom_site_fract_z
 _atom_site_occupancy
  Si  Si1  4  0.000000  0.000000  0.093296  1
  Si  Si2  4  0.333333  0.666667  0.844063  1
# generated using pymatgen
data_ID_4
_symmetry_space_group_name_H-M   Pm-3m
_cell_length_a   2.52742466
_cell_length_b   2.52742466
_cell_length_c   2.52742466
_cell_angle_alpha   90.00000000
_cell_angle_beta   90.00000000
_cell_angle_gamma   90.00000000
_symmetry_Int_Tables_number   221
_chemical_formula_structural   Si
_cell_volume   16.1448738132
_cell_formula_units_Z   1
loop_
 _symmetry_equiv_pos_site_id
 _symmetry_equiv_pos_as_xyz
  1  'x, y, z'
  2  '-x, -y, -z'
  3  '-y, x, z'
  4  'y, -x, -z'
  5  '-x, -y, z'
  6  'x, y, -z'
  7  'y, -x, z'
  8  '-y, x, -z'
  9  'x, -y, -z'
  10  '-x, y, z'
  11  '-y, -x, -z'
  12  'y, x, z'
  13  '-x, y, -z'
  14  'x, -y, z'
  15  'y, x, -z'
  16  '-y, -x, z'
  17  'z, x, y'
  18  '-z, -x, -y'
  19  'z, -y, x'
  20  '-z, y, -x'
  21  'z, -x, -y'
  22  '-z, x, y'
  23  'z, y, -x'
  24  '-z, -y, x'
  25  '-z, x, -y'
  26  'z, -x, y'
  27  '-z, -y, -x'
  28  'z, y, x'
  29  '-z, -x, y'
  30  'z, x, -y'
  31  '-z, y, x'
  32  'z, -y, -x'
  33  'y, z, x'
  34  '-y, -z, -x'
  35  'x, z, -y'
  36  '-x, -z, y'
  37  '-y, z, -x'
  38  'y, -z, x'
  39  '-x, z, y'
  40  'x, -z, -y'
  41  '-y, -z, x'
  42  'y, z, -x'
  43  '-x, -z, -y'
  44  'x, z, y'
  45  'y, -z, -x'
  46  '-y, z, x'
  47  'x, -z, y'
  48  '-x, z, -y'
loop_
 _atom_site_type_symbol
 _atom_site_label
 _atom_site_symmetry_multiplicity
 _atom_site_fract_x
 _atom_site_fract_y
 _atom_site_fract_z
 _atom_site_occupancy
  Si  Si1  1  0.000000  0.000000  0.000000  1
# generated using pymatgen
data_ID_5
_symmetry_space_group_name_H-M   Pm-3m
_cell_length_a   2.53134471
_cell_length_b   2.53134471
_cell_length_c   2.53134471
_cell_angle_alpha   90.00000000
_cell_angle_beta   90.00000000
_cell_angle_gamma   90.00000000
_symmetry_Int_Tables_number   221
_chemical_formula_structural   Si
_cell_volume   16.2201128787
_cell_formula_units_Z   1
loop_
 _symmetry_equiv_pos_site_id
 _symmetry_equiv_pos_as_xyz
  1  'x, y, z'
  2  '-x, -y, -z'
  3  '-y, x, z'
  4  'y, -x, -z'
  5  '-x, -y, z'
  6  'x, y, -z'
  7  'y, -x, z'
  8  '-y, x, -z'
  9  'x, -y, -z'
  10  '-x, y, z'
  11  '-y, -x, -z'
  12  'y, x, z'
  13  '-x, y, -z'
  14  'x, -y, z'
  15  'y, x, -z'
  16  '-y, -x, z'
  17  'z, x, y'
  18  '-z, -x, -y'
  19  'z, -y, x'
  20  '-z, y, -x'
  21  'z, -x, -y'
  22  '-z, x, y'
  23  'z, y, -x'
  24  '-z, -y, x'
  25  '-z, x, -y'
  26  'z, -x, y'
  27  '-z, -y, -x'
  28  'z, y, x'
  29  '-z, -x, y'
  30  'z, x, -y'
  31  '-z, y, x'
  32  'z, -y, -x'
  33  'y, z, x'
  34  '-y, -z, -x'
  35  'x, z, -y'
  36  '-x, -z, y'
  37  '-y, z, -x'
  38  'y, -z, x'
  39  '-x, z, y'
  40  'x, -z, -y'
  41  '-y, -z, x'
  42  'y, z, -x'
  43  '-x, -z, -y'
  44  'x, z, y'
  45  'y, -z, -x'
  46  '-y, z, x'
  47  'x, -z, y'
  48  '-x, z, -y'
loop_
 _atom_site_type_symbol
 _atom_site_label
 _atom_site_symmetry_multiplicity
 _atom_site_fract_x
 _atom_site_fract_y
 _atom_site_fract_z
 _atom_site_occupancy
  Si  Si1  1  0.500000  0.500000  0.500000  1
# generated using pymatgen
data_ID_6
_symmetry_space_group_name_H-M   P6/mmm
_cell_length_a   6.80875236
_cell_length_b   6.80875236
_cell_length_c   4.62447351
_cell_angle_alpha   90.00000000
_cell_angle_beta   90.00000000
_cell_angle_gamma   120.00000000
_symmetry_Int_Tables_number   191
_chemical_formula_structural   Si
_cell_volume   185.66412914
_cell_formula_units_Z   8
loop_
 _symmetry_equiv_pos_site_id
 _symmetry_equiv_pos_as_xyz
  1  'x, y, z'
  2  '-x, -y, -z'
  3  'y, -x+y, z'
  4  '-y, x-y, -z'
  5  '-x+y, -x, z'
  6  'x-y, x, -z'
  7  '-x, -y, z'
  8  'x, y, -z'
  9  '-y, x-y, z'
  10  'y, -x+y, -z'
  11  'x-y, x, z'
  12  '-x+y, -x, -z'
  13  '-y, -x, -z'
  14  'y, x, z'
  15  'x-y, -y, -z'
  16  '-x+y, y, z'
  17  'x, x-y, -z'
  18  '-x, -x+y, z'
  19  'y, x, -z'
  20  '-y, -x, z'
  21  '-x+y, y, -z'
  22  'x-y, -y, z'
  23  '-x, -x+y, -z'
  24  'x, x-y, z'
loop_
 _atom_site_type_symbol
 _atom_site_label
 _atom_site_symmetry_multiplicity
 _atom_site_fract_x
 _atom_site_fract_y
 _atom_site_fract_z
 _atom_site_occupancy
  Si  Si1  6  0.212462  0.424924  0.000000  1
  Si  Si2  1  0.000000  0.000000  0.000000  1
  Si  Si3  1  0.000000  0.000000  0.500000  1
# generated using pymatgen
data_ID_8
_symmetry_space_group_name_H-M   P4_2/mnm
_cell_length_a   5.08834279
_cell_length_b   5.08834279
_cell_length_c   6.16986220
_cell_angle_alpha   90.00000000
_cell_angle_beta   90.00000000
_cell_angle_gamma   90.00000000
_symmetry_Int_Tables_number   136
_chemical_formula_structural   Si
_cell_volume   159.745335922
_cell_formula_units_Z   8
loop_
 _symmetry_equiv_pos_site_id
 _symmetry_equiv_pos_as_xyz
  1  'x, y, z'
  2  '-x, -y, -z'
  3  '-y+1/2, x+1/2, z+1/2'
  4  'y+1/2, -x+1/2, -z+1/2'
  5  '-x, -y, z'
  6  'x, y, -z'
  7  'y+1/2, -x+1/2, z+1/2'
  8  '-y+1/2, x+1/2, -z+1/2'
  9  'x+1/2, -y+1/2, -z+1/2'
  10  '-x+1/2, y+1/2, z+1/2'
  11  '-y, -x, -z'
  12  'y, x, z'
  13  '-x+1/2, y+1/2, -z+1/2'
  14  'x+1/2, -y+1/2, z+1/2'
  15  'y, x, -z'
  16  '-y, -x, z'
loop_
 _atom_site_type_symbol
 _atom_site_label
 _atom_site_symmetry_multiplicity
 _atom_site_fract_x
 _atom_site_fract_y
 _atom_site_fract_z
 _atom_site_occupancy
  Si  Si1  4  0.000000  0.500000  0.250000  1
  Si  Si2  4  0.165479  0.834521  0.000000  1
# generated using pymatgen
data_ID_10
_symmetry_space_group_name_H-M   I4/mmm
_cell_length_a   3.22950050
_cell_length_b   3.22950050
_cell_length_c   2.77610317
_cell_angle_alpha   90.00000000
_cell_angle_beta   90.00000000
_cell_angle_gamma   90.00000000
_symmetry_Int_Tables_number   139
_chemical_formula_structural   Si
_cell_volume   28.953849508
_cell_formula_units_Z   2
loop_
 _symmetry_equiv_pos_site_id
 _symmetry_equiv_pos_as_xyz
  1  'x, y, z'
  2  '-x, -y, -z'
  3  'y, -x, z'
  4  '-y, x, -z'
  5  '-x, -y, z'
  6  'x, y, -z'
  7  '-y, x, z'
  8  'y, -x, -z'
  9  'x, -y, -z'
  10  '-x, y, z'
  11  'y, x, -z'
  12  '-y, -x, z'
  13  '-x, y, -z'
  14  'x, -y, z'
  15  '-y, -x, -z'
  16  'y, x, z'
  17  'x+1/2, y+1/2, z+1/2'
  18  '-x+1/2, -y+1/2, -z+1/2'
  19  'y+1/2, -x+1/2, z+1/2'
  20  '-y+1/2, x+1/2, -z+1/2'
  21  '-x+1/2, -y+1/2, z+1/2'
  22  'x+1/2, y+1/2, -z+1/2'
  23  '-y+1/2, x+1/2, z+1/2'
  24  'y+1/2, -x+1/2, -z+1/2'
  25  'x+1/2, -y+1/2, -z+1/2'
  26  '-x+1/2, y+1/2, z+1/2'
  27  'y+1/2, x+1/2, -z+1/2'
  28  '-y+1/2, -x+1/2, z+1/2'
  29  '-x+1/2, y+1/2, -z+1/2'
  30  'x+1/2, -y+1/2, z+1/2'
  31  '-y+1/2, -x+1/2, -z+1/2'
  32  'y+1/2, x+1/2, z+1/2'
loop_
 _atom_site_type_symbol
 _atom_site_label
 _atom_site_symmetry_multiplicity
 _atom_site_fract_x
 _atom_site_fract_y
 _atom_site_fract_z
 _atom_site_occupancy
  Si  Si1  2  0.000000  0.000000  0.500000  1
# generated using pymatgen
data_ID_12
_symmetry_space_group_name_H-M   F-43m
_cell_length_a   8.36016127
_cell_length_b   8.36016127
_cell_length_c   8.36016127
_cell_angle_alpha   90.00000000
_cell_angle_beta   90.00000000
_cell_angle_gamma   90.00000000
_symmetry_Int_Tables_number   216
_chemical_formula_structural   Si
_cell_volume   584.310869167
_cell_formula_units_Z   32
loop_
 _symmetry_equiv_pos_site_id
 _symmetry_equiv_pos_as_xyz
  1  'x, y, z'
  2  '-z, -y, x'
  3  '-x, y, -z'
  4  'z, -y, -x'
  5  'x, -y, -z'
  6  '-z, y, -x'
  7  '-x, -y, z'
  8  'z, y, x'
  9  'y, -z, -x'
  10  '-y, -x, z'
  11  'y, z, x'
  12  '-y, x, -z'
  13  '-y, z, -x'
  14  'y, x, z'
  15  '-y, -z, x'
  16  'y, -x, -z'
  17  '-z, x, -y'
  18  '-x, -z, y'
  19  'z, -x, -y'
  20  'x, z, y'
  21  'z, x, y'
  22  'x, -z, -y'
  23  '-z, -x, y'
  24  '-x, z, -y'
  25  'x+1/2, y+1/2, z'
  26  '-z+1/2, -y+1/2, x'
  27  '-x+1/2, y+1/2, -z'
  28  'z+1/2, -y+1/2, -x'
  29  'x+1/2, -y+1/2, -z'
  30  '-z+1/2, y+1/2, -x'
  31  '-x+1/2, -y+1/2, z'
  32  'z+1/2, y+1/2, x'
  33  'y+1/2, -z+1/2, -x'
  34  '-y+1/2, -x+1/2, z'
  35  'y+1/2, z+1/2, x'
  36  '-y+1/2, x+1/2, -z'
  37  '-y+1/2, z+1/2, -x'
  38  'y+1/2, x+1/2, z'
  39  '-y+1/2, -z+1/2, x'
  40  'y+1/2, -x+1/2, -z'
  41  '-z+1/2, x+1/2, -y'
  42  '-x+1/2, -z+1/2, y'
  43  'z+1/2, -x+1/2, -y'
  44  'x+1/2, z+1/2, y'
  45  'z+1/2, x+1/2, y'
  46  'x+1/2, -z+1/2, -y'
  47  '-z+1/2, -x+1/2, y'
  48  '-x+1/2, z+1/2, -y'
  49  'x+1/2, y, z+1/2'
  50  '-z+1/2, -y, x+1/2'
  51  '-x+1/2, y, -z+1/2'
  52  'z+1/2, -y, -x+1/2'
  53  'x+1/2, -y, -z+1/2'
  54  '-z+1/2, y, -x+1/2'
  55  '-x+1/2, -y, z+1/2'
  56  'z+1/2, y, x+1/2'
  57  'y+1/2, -z, -x+1/2'
  58  '-y+1/2, -x, z+1/2'
  59  'y+1/2, z, x+1/2'
  60  '-y+1/2, x, -z+1/2'
  61  '-y+1/2, z, -x+1/2'
  62  'y+1/2, x, z+1/2'
  63  '-y+1/2, -z, x+1/2'
  64  'y+1/2, -x, -z+1/2'
  65  '-z+1/2, x, -y+1/2'
  66  '-x+1/2, -z, y+1/2'
  67  'z+1/2, -x, -y+1/2'
  68  'x+1/2, z, y+1/2'
  69  'z+1/2, x, y+1/2'
  70  'x+1/2, -z, -y+1/2'
  71  '-z+1/2, -x, y+1/2'
  72  '-x+1/2, z, -y+1/2'
  73  'x, y+1/2, z+1/2'
  74  '-z, -y+1/2, x+1/2'
  75  '-x, y+1/2, -z+1/2'
  76  'z, -y+1/2, -x+1/2'
  77  'x, -y+1/2, -z+1/2'
  78  '-z, y+1/2, -x+1/2'
  79  '-x, -y+1/2, z+1/2'
  80  'z, y+1/2, x+1/2'
  81  'y, -z+1/2, -x+1/2'
  82  '-y, -x+1/2, z+1/2'
  83  'y, z+1/2, x+1/2'
  84  '-y, x+1/2, -z+1/2'
  85  '-y, z+1/2, -x+1/2'
  86  'y, x+1/2, z+1/2'
  87  '-y, -z+1/2, x+1/2'
  88  'y, -x+1/2, -z+1/2'
  89  '-z, x+1/2, -y+1/2'
  90  '-x, -z+1/2, y+1/2'
  91  'z, -x+1/2, -y+1/2'
  92  'x, z+1/2, y+1/2'
  93  'z, x+1/2, y+1/2'
  94  'x, -z+1/2, -y+1/2'
  95  '-z, -x+1/2, y+1/2'
  96  '-x, z+1/2, -y+1/2'
loop_
 _atom_site_type_symbol
 _atom_site_label
 _atom_site_symmetry_multiplicity
 _atom_site_fract_x
 _atom_site_fract_y
 _atom_site_fract_z
 _atom_site_occupancy
  Si  Si1  24  0.000000  0.000000  0.287881  1
  Si  Si2  4  0.000000  0.000000  0.000000  1
  Si  Si3  4  0.250000  0.250000  0.250000  1
# generated using pymatgen
data_ID_13
_symmetry_space_group_name_H-M   Fd-3m
_cell_length_a   5.46233977
_cell_length_b   5.46233977
_cell_length_c   5.46233977
_cell_angle_alpha   90.00000000
_cell_angle_beta   90.00000000
_cell_angle_gamma   90.00000000
_symmetry_Int_Tables_number   227
_chemical_formula_structural   Si
_cell_volume   162.980682466
_cell_formula_units_Z   8
loop_
 _symmetry_equiv_pos_site_id
 _symmetry_equiv_pos_as_xyz
  1  'x, y, z'
  2  'z+1/4, y+3/4, -x+3/4'
  3  '-x+1/2, y, -z+1/2'
  4  '-z+1/4, y+3/4, x+3/4'
  5  'x, -y+1/2, -z+1/2'
  6  'z+1/4, -y+3/4, x+3/4'
  7  '-x+1/2, -y+1/2, z'
  8  '-z+1/4, -y+3/4, -x+3/4'
  9  'y, -z, -x'
  10  'y+1/4, x+3/4, -z+3/4'
  11  'y, z+1/2, x+1/2'
  12  'y+1/4, -x+3/4, z+3/4'
  13  '-y+1/2, z+1/2, -x'
  14  '-y+1/4, -x+3/4, -z+3/4'
  15  '-y+1/2, -z, x+1/2'
  16  '-y+1/4, x+3/4, z+3/4'
  17  '-z, x, -y'
  18  'x+1/4, z+3/4, -y+3/4'
  19  'z+1/2, -x+1/2, -y'
  20  '-x+1/4, -z+3/4, -y+3/4'
  21  'z+1/2, x, y+1/2'
  22  '-x+1/4, z+3/4, y+3/4'
  23  '-z, -x+1/2, y+1/2'
  24  'x+1/4, -z+3/4, y+3/4'
  25  '-x+1/4, -y+3/4, -z+3/4'
  26  '-z, -y+1/2, x+1/2'
  27  'x+1/4, -y+3/4, z+3/4'
  28  'z+1/2, -y+1/2, -x'
  29  '-x+1/4, y+3/4, z+3/4'
  30  '-z, y, -x'
  31  'x+1/4, y+3/4, -z+3/4'
  32  'z+1/2, y, x+1/2'
  33  '-y+1/4, z+3/4, x+3/4'
  34  '-y+1/2, -x+1/2, z'
  35  '-y+1/4, -z+3/4, -x+3/4'
  36  '-y+1/2, x, -z+1/2'
  37  'y+1/4, -z+3/4, x+3/4'
  38  'y, x, z'
  39  'y+1/4, z+3/4, -x+3/4'
  40  'y, -x+1/2, -z+1/2'
  41  'z+1/4, -x+3/4, y+3/4'
  42  '-x+1/2, -z, y+1/2'
  43  '-z+1/4, x+3/4, y+3/4'
  44  'x, z+1/2, y+1/2'
  45  '-z+1/4, -x+3/4, -y+3/4'
  46  'x, -z, -y'
  47  'z+1/4, x+3/4, -y+3/4'
  48  '-x+1/2, z+1/2, -y'
  49  'x+1/2, y+1/2, z'
  50  'z+3/4, y+1/4, -x+3/4'
  51  '-x, y+1/2, -z+1/2'
  52  '-z+3/4, y+1/4, x+3/4'
  53  'x+1/2, -y, -z+1/2'
  54  'z+3/4, -y+1/4, x+3/4'
  55  '-x, -y, z'
  56  '-z+3/4, -y+1/4, -x+3/4'
  57  'y+1/2, -z+1/2, -x'
  58  'y+3/4, x+1/4, -z+3/4'
  59  'y+1/2, z, x+1/2'
  60  'y+3/4, -x+1/4, z+3/4'
  61  '-y, z, -x'
  62  '-y+3/4, -x+1/4, -z+3/4'
  63  '-y, -z+1/2, x+1/2'
  64  '-y+3/4, x+1/4, z+3/4'
  65  '-z+1/2, x+1/2, -y'
  66  'x+3/4, z+1/4, -y+3/4'
  67  'z, -x, -y'
  68  '-x+3/4, -z+1/4, -y+3/4'
  69  'z, x+1/2, y+1/2'
  70  '-x+3/4, z+1/4, y+3/4'
  71  '-z+1/2, -x, y+1/2'
  72  'x+3/4, -z+1/4, y+3/4'
  73  '-x+3/4, -y+1/4, -z+3/4'
  74  '-z+1/2, -y, x+1/2'
  75  'x+3/4, -y+1/4, z+3/4'
  76  'z, -y, -x'
  77  '-x+3/4, y+1/4, z+3/4'
  78  '-z+1/2, y+1/2, -x'
  79  'x+3/4, y+1/4, -z+3/4'
  80  'z, y+1/2, x+1/2'
  81  '-y+3/4, z+1/4, x+3/4'
  82  '-y, -x, z'
  83  '-y+3/4, -z+1/4, -x+3/4'
  84  '-y, x+1/2, -z+1/2'
  85  'y+3/4, -z+1/4, x+3/4'
  86  'y+1/2, x+1/2, z'
  87  'y+3/4, z+1/4, -x+3/4'
  88  'y+1/2, -x, -z+1/2'
  89  'z+3/4, -x+1/4, y+3/4'
  90  '-x, -z+1/2, y+1/2'
  91  '-z+3/4, x+1/4, y+3/4'
  92  'x+1/2, z, y+1/2'
  93  '-z+3/4, -x+1/4, -y+3/4'
  94  'x+1/2, -z+1/2, -y'
  95  'z+3/4, x+1/4, -y+3/4'
  96  '-x, z, -y'
  97  'x+1/2, y, z+1/2'
  98  'z+3/4, y+3/4, -x+1/4'
  99  '-x, y, -z'
  100  '-z+3/4, y+3/4, x+1/4'
  101  'x+1/2, -y+1/2, -z'
  102  'z+3/4, -y+3/4, x+1/4'
  103  '-x, -y+1/2, z+1/2'
  104  '-z+3/4, -y+3/4, -x+1/4'
  105  'y+1/2, -z, -x+1/2'
  106  'y+3/4, x+3/4, -z+1/4'
  107  'y+1/2, z+1/2, x'
  108  'y+3/4, -x+3/4, z+1/4'
  109  '-y, z+1/2, -x+1/2'
  110  '-y+3/4, -x+3/4, -z+1/4'
  111  '-y, -z, x'
  112  '-y+3/4, x+3/4, z+1/4'
  113  '-z+1/2, x, -y+1/2'
  114  'x+3/4, z+3/4, -y+1/4'
  115  'z, -x+1/2, -y+1/2'
  116  '-x+3/4, -z+3/4, -y+1/4'
  117  'z, x, y'
  118  '-x+3/4, z+3/4, y+1/4'
  119  '-z+1/2, -x+1/2, y'
  120  'x+3/4, -z+3/4, y+1/4'
  121  '-x+3/4, -y+3/4, -z+1/4'
  122  '-z+1/2, -y+1/2, x'
  123  'x+3/4, -y+3/4, z+1/4'
  124  'z, -y+1/2, -x+1/2'
  125  '-x+3/4, y+3/4, z+1/4'
  126  '-z+1/2, y, -x+1/2'
  127  'x+3/4, y+3/4, -z+1/4'
  128  'z, y, x'
  129  '-y+3/4, z+3/4, x+1/4'
  130  '-y, -x+1/2, z+1/2'
  131  '-y+3/4, -z+3/4, -x+1/4'
  132  '-y, x, -z'
  133  'y+3/4, -z+3/4, x+1/4'
  134  'y+1/2, x, z+1/2'
  135  'y+3/4, z+3/4, -x+1/4'
  136  'y+1/2, -x+1/2, -z'
  137  'z+3/4, -x+3/4, y+1/4'
  138  '-x, -z, y'
  139  '-z+3/4, x+3/4, y+1/4'
  140  'x+1/2, z+1/2, y'
  141  '-z+3/4, -x+3/4, -y+1/4'
  142  'x+1/2, -z, -y+1/2'
  143  'z+3/4, x+3/4, -y+1/4'
  144  '-x, z+1/2, -y+1/2'
  145  'x, y+1/2, z+1/2'
  146  'z+1/4, y+1/4, -x+1/4'
  147  '-x+1/2, y+1/2, -z'
  148  '-z+1/4, y+1/4, x+1/4'
  149  'x, -y, -z'
  150  'z+1/4, -y+1/4, x+1/4'
  151  '-x+1/2, -y, z+1/2'
  152  '-z+1/4, -y+1/4, -x+1/4'
  153  'y, -z+1/2, -x+1/2'
  154  'y+1/4, x+1/4, -z+1/4'
  155  'y, z, x'
  156  'y+1/4, -x+1/4, z+1/4'
  157  '-y+1/2, z, -x+1/2'
  158  '-y+1/4, -x+1/4, -z+1/4'
  159  '-y+1/2, -z+1/2, x'
  160  '-y+1/4, x+1/4, z+1/4'
  161  '-z, x+1/2, -y+1/2'
  162  'x+1/4, z+1/4, -y+1/4'
  163  'z+1/2, -x, -y+1/2'
  164  '-x+1/4, -z+1/4, -y+1/4'
  165  'z+1/2, x+1/2, y'
  166  '-x+1/4, z+1/4, y+1/4'
  167  '-z, -x, y'
  168  'x+1/4, -z+1/4, y+1/4'
  169  '-x+1/4, -y+1/4, -z+1/4'
  170  '-z, -y, x'
  171  'x+1/4, -y+1/4, z+1/4'
  172  'z+1/2, -y, -x+1/2'
  173  '-x+1/4, y+1/4, z+1/4'
  174  '-z, y+1/2, -x+1/2'
  175  'x+1/4, y+1/4, -z+1/4'
  176  'z+1/2, y+1/2, x'
  177  '-y+1/4, z+1/4, x+1/4'
  178  '-y+1/2, -x, z+1/2'
  179  '-y+1/4, -z+1/4, -x+1/4'
  180  '-y+1/2, x+1/2, -z'
  181  'y+1/4, -z+1/4, x+1/4'
  182  'y, x+1/2, z+1/2'
  183  'y+1/4, z+1/4, -x+1/4'
  184  'y, -x, -z'
  185  'z+1/4, -x+1/4, y+1/4'
  186  '-x+1/2, -z+1/2, y'
  187  '-z+1/4, x+1/4, y+1/4'
  188  'x, z, y'
  189  '-z+1/4, -x+1/4, -y+1/4'
  190  'x, -z+1/2, -y+1/2'
  191  'z+1/4, x+1/4, -y+1/4'
  192  '-x+1/2, z, -y+1/2'
loop_
 _atom_site_type_symbol
 _atom_site_label
 _atom_site_symmetry_multiplicity
 _atom_site_fract_x
 _atom_site_fract_y
 _atom_site_fract_z
 _atom_site_occupancy
  Si  Si1  8  0.000000  0.000000  0.500000  1
# generated using pymatgen
data_ID_14
_symmetry_space_group_name_H-M   Im-3m
_cell_length_a   7.48937558
_cell_length_b   7.48937558
_cell_length_c   7.48937558
_cell_angle_alpha   90.00000000
_cell_angle_beta   90.00000000
_cell_angle_gamma   90.00000000
_symmetry_Int_Tables_number   229
_chemical_formula_structural   Si
_cell_volume   420.084668082
_cell_formula_units_Z   16
loop_
 _symmetry_equiv_pos_site_id
 _symmetry_equiv_pos_as_xyz
  1  'x, y, z'
  2  '-x+1/2, -y+1/2, -z+1/2'
  3  'x, -z, y'
  4  '-x+1/2, z+1/2, -y+1/2'
  5  'x+1/2, -y+1/2, -z+1/2'
  6  '-x, y, z'
  7  'x+1/2, z+1/2, -y+1/2'
  8  '-x+1/2, -z+1/2, y+1/2'
  9  '-x+1/2, -y+1/2, z+1/2'
  10  'x+1/2, y+1/2, -z+1/2'
  11  '-x, z, y'
  12  'x+1/2, -z+1/2, -y+1/2'
  13  '-x+1/2, y+1/2, -z+1/2'
  14  'x, -y, z'
  15  '-x+1/2, -z+1/2, -y+1/2'
  16  'x, z, y'
  17  'y+1/2, -z+1/2, -x+1/2'
  18  '-y, z, x'
  19  '-z+1/2, -y+1/2, -x+1/2'
  20  'z, y, x'
  21  '-y+1/2, z+1/2, -x+1/2'
  22  'y, -z, x'
  23  'z+1/2, y+1/2, -x+1/2'
  24  '-z+1/2, -y+1/2, x+1/2'
  25  '-y+1/2, -z+1/2, x+1/2'
  26  'y+1/2, z+1/2, -x+1/2'
  27  'z, -y, x'
  28  '-z+1/2, y+1/2, -x+1/2'
  29  'y, z, x'
  30  '-y+1/2, -z+1/2, -x+1/2'
  31  '-z, y, x'
  32  'z+1/2, -y+1/2, -x+1/2'
  33  '-z+1/2, x+1/2, -y+1/2'
  34  'z, -x, y'
  35  '-y, x, z'
  36  'y+1/2, -x+1/2, -z+1/2'
  37  'z, x, y'
  38  '-z+1/2, -x+1/2, -y+1/2'
  39  'y+1/2, x+1/2, -z+1/2'
  40  '-y+1/2, -x+1/2, z+1/2'
  41  '-z+1/2, -x+1/2, y+1/2'
  42  'z+1/2, x+1/2, -y+1/2'
  43  '-y+1/2, -x+1/2, -z+1/2'
  44  'y, x, z'
  45  'z+1/2, -x+1/2, -y+1/2'
  46  '-z, x, y'
  47  'y, -x, z'
  48  '-y+1/2, x+1/2, -z+1/2'
  49  'x+1/2, y+1/2, z+1/2'
  50  '-x, -y, -z'
  51  'x+1/2, -z+1/2, y+1/2'
  52  '-x, z, -y'
  53  'x, -y, -z'
  54  '-x+1/2, y+1/2, z+1/2'
  55  'x, z, -y'
  56  '-x, -z, y'
  57  '-x, -y, z'
  58  'x, y, -z'
  59  '-x+1/2, z+1/2, y+1/2'
  60  'x, -z, -y'
  61  '-x, y, -z'
  62  'x+1/2, -y+1/2, z+1/2'
  63  '-x, -z, -y'
  64  'x+1/2, z+1/2, y+1/2'
  65  'y, -z, -x'
  66  '-y+1/2, z+1/2, x+1/2'
  67  '-z, -y, -x'
  68  'z+1/2, y+1/2, x+1/2'
  69  '-y, z, -x'
  70  'y+1/2, -z+1/2, x+1/2'
  71  'z, y, -x'
  72  '-z, -y, x'
  73  '-y, -z, x'
  74  'y, z, -x'
  75  'z+1/2, -y+1/2, x+1/2'
  76  '-z, y, -x'
  77  'y+1/2, z+1/2, x+1/2'
  78  '-y, -z, -x'
  79  '-z+1/2, y+1/2, x+1/2'
  80  'z, -y, -x'
  81  '-z, x, -y'
  82  'z+1/2, -x+1/2, y+1/2'
  83  '-y+1/2, x+1/2, z+1/2'
  84  'y, -x, -z'
  85  'z+1/2, x+1/2, y+1/2'
  86  '-z, -x, -y'
  87  'y, x, -z'
  88  '-y, -x, z'
  89  '-z, -x, y'
  90  'z, x, -y'
  91  '-y, -x, -z'
  92  'y+1/2, x+1/2, z+1/2'
  93  'z, -x, -y'
  94  '-z+1/2, x+1/2, y+1/2'
  95  'y+1/2, -x+1/2, z+1/2'
  96  '-y, x, -z'
loop_
 _atom_site_type_symbol
 _atom_site_label
 _atom_site_symmetry_multiplicity
 _atom_site_fract_x
 _atom_site_fract_y
 _atom_site_fract_z
 _atom_site_occupancy
  Si  Si1  16  0.160057  0.160057  0.160057  1
# generated using pymatgen
data_ID_15
_symmetry_space_group_name_H-M   I4/mcm
_cell_length_a   7.00829406
_cell_length_b   7.00829406
_cell_length_c   5.15259617
_cell_angle_alpha   90.00000000
_cell_angle_beta   90.00000000
_cell_angle_gamma   90.00000000
_symmetry_Int_Tables_number   140
_chemical_formula_structural   Si
_cell_volume   253.075870174
_cell_formula_units_Z   16
loop_
 _symmetry_equiv_pos_site_id
 _symmetry_equiv_pos_as_xyz
  1  'x, y, z'
  2  '-x, -y, -z'
  3  'y, -x, z'
  4  '-y, x, -z'
  5  '-x, -y, z'
  6  'x, y, -z'
  7  '-y, x, z'
  8  'y, -x, -z'
  9  '-x, y, -z+1/2'
  10  'x, -y, z+1/2'
  11  '-y, -x, -z+1/2'
  12  'y, x, z+1/2'
  13  'x, -y, -z+1/2'
  14  '-x, y, z+1/2'
  15  'y, x, -z+1/2'
  16  '-y, -x, z+1/2'
  17  'x+1/2, y+1/2, z+1/2'
  18  '-x+1/2, -y+1/2, -z+1/2'
  19  'y+1/2, -x+1/2, z+1/2'
  20  '-y+1/2, x+1/2, -z+1/2'
  21  '-x+1/2, -y+1/2, z+1/2'
  22  'x+1/2, y+1/2, -z+1/2'
  23  '-y+1/2, x+1/2, z+1/2'
  24  'y+1/2, -x+1/2, -z+1/2'
  25  '-x+1/2, y+1/2, -z'
  26  'x+1/2, -y+1/2, z'
  27  '-y+1/2, -x+1/2, -z'
  28  'y+1/2, x+1/2, z'
  29  'x+1/2, -y+1/2, -z'
  30  '-x+1/2, y+1/2, z'
  31  'y+1/2, x+1/2, -z'
  32  '-y+1/2, -x+1/2, z'
loop_
 _atom_site_type_symbol
 _atom_site_label
 _atom_site_symmetry_multiplicity
 _atom_site_fract_x
 _atom_site_fract_y
 _atom_site_fract_z
 _atom_site_occupancy
  Si  Si1  8  0.213688  0.286312  0.500000  1
  Si  Si2  4  0.000000  0.000000  0.000000  1
  Si  Si3  4  0.000000  0.500000  0.250000  1
# generated using pymatgen
data_ID_16
_symmetry_space_group_name_H-M   Fddd
_cell_length_a   5.91860605
_cell_length_b   8.78506399
_cell_length_c   9.45388897
_cell_angle_alpha   90.00000000
_cell_angle_beta   90.00000000
_cell_angle_gamma   90.00000000
_symmetry_Int_Tables_number   70
_chemical_formula_structural   Si
_cell_volume   491.558103312
_cell_formula_units_Z   32
loop_
 _symmetry_equiv_pos_site_id
 _symmetry_equiv_pos_as_xyz
  1  'x, y, z'
  2  '-x, -y, z'
  3  'x, -y, -z'
  4  '-x, y, -z'
  5  '-x+3/4, -y+3/4, -z+1/4'
  6  'x+3/4, y+3/4, -z+1/4'
  7  '-x+3/4, y+3/4, z+1/4'
  8  'x+3/4, -y+3/4, z+1/4'
  9  'x+1/2, y, z+1/2'
  10  '-x+1/2, -y, z+1/2'
  11  'x+1/2, -y, -z+1/2'
  12  '-x+1/2, y, -z+1/2'
  13  '-x+1/4, -y+3/4, -z+3/4'
  14  'x+1/4, y+3/4, -z+3/4'
  15  '-x+1/4, y+3/4, z+3/4'
  16  'x+1/4, -y+3/4, z+3/4'
  17  'x+1/2, y+1/2, z'
  18  '-x+1/2, -y+1/2, z'
  19  'x+1/2, -y+1/2, -z'
  20  '-x+1/2, y+1/2, -z'
  21  '-x+1/4, -y+1/4, -z+1/4'
  22  'x+1/4, y+1/4, -z+1/4'
  23  '-x+1/4, y+1/4, z+1/4'
  24  'x+1/4, -y+1/4, z+1/4'
  25  'x, y+1/2, z+1/2'
  26  '-x, -y+1/2, z+1/2'
  27  'x, -y+1/2, -z+1/2'
  28  '-x, y+1/2, -z+1/2'
  29  '-x+3/4, -y+1/4, -z+3/4'
  30  'x+3/4, y+1/4, -z+3/4'
  31  '-x+3/4, y+1/4, z+3/4'
  32  'x+3/4, -y+1/4, z+3/4'
loop_
 _atom_site_type_symbol
 _atom_site_label
 _atom_site_symmetry_multiplicity
 _atom_site_fract_x
 _atom_site_fract_y
 _atom_site_fract_z
 _atom_site_occupancy
  Si  Si1  16  0.000000  0.000000  0.366767  1
  Si  Si2  16  0.125000  0.125000  0.125000  1
# generated using pymatgen
data_ID_17
_symmetry_space_group_name_H-M   I422
_cell_length_a   6.59051010
_cell_length_b   6.59051010
_cell_length_c   6.77024573
_cell_angle_alpha   90.00000000
_cell_angle_beta   90.00000000
_cell_angle_gamma   90.00000000
_symmetry_Int_Tables_number   97
_chemical_formula_structural   Si
_cell_volume   294.064427081
_cell_formula_units_Z   16
loop_
 _symmetry_equiv_pos_site_id
 _symmetry_equiv_pos_as_xyz
  1  'x, y, z'
  2  'y, -x, z'
  3  '-x, -y, z'
  4  '-y, x, z'
  5  'x, -y, -z'
  6  'y, x, -z'
  7  '-x, y, -z'
  8  '-y, -x, -z'
  9  'x+1/2, y+1/2, z+1/2'
  10  'y+1/2, -x+1/2, z+1/2'
  11  '-x+1/2, -y+1/2, z+1/2'
  12  '-y+1/2, x+1/2, z+1/2'
  13  'x+1/2, -y+1/2, -z+1/2'
  14  'y+1/2, x+1/2, -z+1/2'
  15  '-x+1/2, y+1/2, -z+1/2'
  16  '-y+1/2, -x+1/2, -z+1/2'
loop_
 _atom_site_type_symbol
 _atom_site_label
 _atom_site_symmetry_multiplicity
 _atom_site_fract_x
 _atom_site_fract_y
 _atom_site_fract_z
 _atom_site_occupancy
  Si  Si1  8  0.179106  0.320894  0.750000  1
  Si  Si2  4  0.000000  0.000000  0.177714  1
  Si  Si3  4  0.000000  0.500000  0.000000  1
# generated using pymatgen
data_ID_18
_symmetry_space_group_name_H-M   Pmma
_cell_length_a   8.54632229
_cell_length_b   2.39528848
_cell_length_c   8.42948204
_cell_angle_alpha   90.00000000
_cell_angle_beta   90.00000000
_cell_angle_gamma   90.00000000
_symmetry_Int_Tables_number   51
_chemical_formula_structural   Si
_cell_volume   172.559145291
_cell_formula_units_Z   4
loop_
 _symmetry_equiv_pos_site_id
 _symmetry_equiv_pos_as_xyz
  1  'x, y, z'
  2  '-x, -y, -z'
  3  '-x+1/2, -y, z'
  4  'x+1/2, y, -z'
  5  'x+1/2, -y, -z'
  6  '-x+1/2, y, z'
  7  '-x, y, -z'
  8  'x, -y, z'
loop_
 _atom_site_type_symbol
 _atom_site_label
 _atom_site_symmetry_multiplicity
 _atom_site_fract_x
 _atom_site_fract_y
 _atom_site_fract_z
 _atom_site_occupancy
  Si  Si1  2  0.000000  0.500000  0.500000  1
  Si  Si2  2  0.250000  0.500000  0.368313  1
# generated using pymatgen
data_ID_19
_symmetry_space_group_name_H-M   P4_2/mmc
_cell_length_a   9.12671975
_cell_length_b   9.12671975
_cell_length_c   4.60012507
_cell_angle_alpha   90.00000000
_cell_angle_beta   90.00000000
_cell_angle_gamma   90.00000000
_symmetry_Int_Tables_number   131
_chemical_formula_structural   Si
_cell_volume   383.176679514
_cell_formula_units_Z   8
loop_
 _symmetry_equiv_pos_site_id
 _symmetry_equiv_pos_as_xyz
  1  'x, y, z'
  2  '-x, -y, -z'
  3  '-y, x, z+1/2'
  4  'y, -x, -z+1/2'
  5  '-x, -y, z'
  6  'x, y, -z'
  7  'y, -x, z+1/2'
  8  '-y, x, -z+1/2'
  9  'x, -y, -z'
  10  '-x, y, z'
  11  '-y, -x, -z+1/2'
  12  'y, x, z+1/2'
  13  '-x, y, -z'
  14  'x, -y, z'
  15  'y, x, -z+1/2'
  16  '-y, -x, z+1/2'
loop_
 _atom_site_type_symbol
 _atom_site_label
 _atom_site_symmetry_multiplicity
 _atom_site_fract_x
 _atom_site_fract_y
 _atom_site_fract_z
 _atom_site_occupancy
  Si  Si1  4  0.000000  0.259303  0.500000  1
  Si  Si2  2  0.000000  0.000000  0.000000  1
  Si  Si3  2  0.000000  0.500000  0.500000  1
