# generated using pymatgen
data_ID_0
_symmetry_space_group_name_H-M   I-43d
_cell_length_a   6.52246107
_cell_length_b   6.52246107
_cell_length_c   6.52246107
_cell_angle_alpha   90.00000000
_cell_angle_beta   90.00000000
_cell_angle_gamma   90.00000000
_symmetry_Int_Tables_number   220
_chemical_formula_structural   Si
_cell_volume   277.48178972
_cell_formula_units_Z   16
loop_
 _symmetry_equiv_pos_site_id
 _symmetry_equiv_pos_as_xyz
  1  'x, y, z'
  2  '-x+1/4, z+1/4, -y+3/4'
  3  'x, -y, -z+1/2'
  4  '-x+1/4, -z+3/4, y+3/4'
  5  '-x, -y+1/2, z'
  6  'x+3/4, -z+1/4, -y+3/4'
  7  '-x+1/2, y, -z'
  8  'x+1/4, z+1/4, y+1/4'
  9  'y, -z, -x+1/2'
  10  'z+1/4, y+1/4, x+1/4'
  11  '-y+1/2, z, -x'
  12  '-z+1/4, -y+3/4, x+3/4'
  13  '-y, -z+1/2, x'
  14  '-z+1/4, y+1/4, -x+3/4'
  15  'y, z, x'
  16  'z+3/4, -y+1/4, -x+3/4'
  17  '-z+1/2, x, -y'
  18  'y+3/4, -x+1/4, -z+3/4'
  19  'z, x, y'
  20  '-y+1/4, -x+3/4, z+3/4'
  21  '-z, -x+1/2, y'
  22  'y+1/4, x+1/4, z+1/4'
  23  'z, -x, -y+1/2'
  24  '-y+1/4, x+1/4, -z+3/4'
  25  'x+1/2, y+1/2, z+1/2'
  26  '-x+3/4, z+3/4, -y+1/4'
  27  'x+1/2, -y+1/2, -z'
  28  '-x+3/4, -z+1/4, y+1/4'
  29  '-x+1/2, -y, z+1/2'
  30  'x+1/4, -z+3/4, -y+1/4'
  31  '-x, y+1/2, -z+1/2'
  32  'x+3/4, z+3/4, y+3/4'
  33  'y+1/2, -z+1/2, -x'
  34  'z+3/4, y+3/4, x+3/4'
  35  '-y, z+1/2, -x+1/2'
  36  '-z+3/4, -y+1/4, x+1/4'
  37  '-y+1/2, -z, x+1/2'
  38  '-z+3/4, y+3/4, -x+1/4'
  39  'y+1/2, z+1/2, x+1/2'
  40  'z+1/4, -y+3/4, -x+1/4'
  41  '-z, x+1/2, -y+1/2'
  42  'y+1/4, -x+3/4, -z+1/4'
  43  'z+1/2, x+1/2, y+1/2'
  44  '-y+3/4, -x+1/4, z+1/4'
  45  '-z+1/2, -x, y+1/2'
  46  'y+3/4, x+3/4, z+3/4'
  47  'z+1/2, -x+1/2, -y'
  48  '-y+3/4, x+3/4, -z+1/4'
loop_
 _atom_site_type_symbol
 _atom_site_label
 _atom_site_symmetry_multiplicity
 _atom_site_fract_x
 _atom_site_fract_y
 _atom_site_fract_z
 _atom_site_occupancy
  Si  Si1  16  0.106572  0.106572  0.106572  1
# generated using pymatgen
data_ID_1
_symmetry_space_group_name_H-M   P4/mmm
_cell_length_a   5.76790268
_cell_length_b   5.76790268
_cell_length_c   2.68525084
_cell_angle_alpha   90.00000000
_cell_angle_beta   90.00000000
_cell_angle_gamma   90.00000000
_symmetry_Int_Tables_number   123
_chemical_formula_structural   Si
_cell_volume   89.3348080906
_cell_formula_units_Z   4
loop_
 _symmetry_equiv_pos_site_id
 _symmetry_equiv_pos_as_xyz
  1  'x, y, z'
  2  '-x, -y, -z'
  3  '-y, x, z'
  4  'y, -x, -z'
  5  '-x, -y, z'
  6  'x, y, -z'
  7  'y, -x, z'
  8  '-y, x, -z'
  9  'x, -y, -z'
  10  '-x, y, z'
  11  '-y, -x, -z'
  12  'y, x, z'
  13  '-x, y, -z'
  14  'x, -y, z'
  15  'y, x, -z'
  16  '-y, -x, z'
loop_
 _atom_site_type_symbol
 _atom_site_label
 _atom_site_symmetry_multiplicity
 _atom_site_fract_x
 _atom_site_fract_y
 _atom_site_fract_z
 _atom_site_occupancy
  Si  Si1  4  0.000000  0.290452  0.500000  1
# generated using pymatgen
data_ID_2
_symmetry_space_group_name_H-M   P6mm
_cell_length_a   7.76432181
_cell_length_b   7.76432181
_cell_length_c   6.74231423
_cell_angle_alpha   90.00000000
_cell_angle_beta   90.00000000
_cell_angle_gamma   120.00000000
_symmetry_Int_Tables_number   183
_chemical_formula_structural   Si
_cell_volume   352.003251358
_cell_formula_units_Z   8
loop_
 _symmetry_equiv_pos_site_id
 _symmetry_equiv_pos_as_xyz
  1  'x, y, z'
  2  'x-y, x, z'
  3  '-y, x-y, z'
  4  '-x, -y, z'
  5  '-x+y, -x, z'
  6  'y, -x+y, z'
  7  'y, x, z'
  8  'x, x-y, z'
  9  'x-y, -y, z'
  10  '-y, -x, z'
  11  '-x, -x+y, z'
  12  '-x+y, y, z'
loop_
 _atom_site_type_symbol
 _atom_site_label
 _atom_site_symmetry_multiplicity
 _atom_site_fract_x
 _atom_site_fract_y
 _atom_site_fract_z
 _atom_site_occupancy
  Si  Si1  3  0.000000  0.500000  0.518707  1
  Si  Si2  3  0.000000  0.500000  0.831731  1
  Si  Si3  1  0.000000  0.000000  0.535541  1
  Si  Si4  1  0.000000  0.000000  0.847536  1
# generated using pymatgen
data_ID_4
_symmetry_space_group_name_H-M   Fd-3m
_cell_length_a   5.46902920
_cell_length_b   5.46902920
_cell_length_c   5.46902920
_cell_angle_alpha   90.00000000
_cell_angle_beta   90.00000000
_cell_angle_gamma   90.00000000
_symmetry_Int_Tables_number   227
_chemical_formula_structural   Si
_cell_volume   163.580196746
_cell_formula_units_Z   8
loop_
 _symmetry_equiv_pos_site_id
 _symmetry_equiv_pos_as_xyz
  1  'x, y, z'
  2  '-z+3/4, y+1/4, x+3/4'
  3  '-x+1/2, y, -z+1/2'
  4  'z+3/4, y+1/4, -x+3/4'
  5  'x, -y+1/2, -z+1/2'
  6  '-z+3/4, -y+1/4, -x+3/4'
  7  '-x+1/2, -y+1/2, z'
  8  'z+3/4, -y+1/4, x+3/4'
  9  'y, z, x'
  10  'y+3/4, x+1/4, -z+3/4'
  11  'y, -z+1/2, -x+1/2'
  12  'y+3/4, -x+1/4, z+3/4'
  13  '-y+1/2, -z+1/2, x'
  14  '-y+3/4, -x+1/4, -z+3/4'
  15  '-y+1/2, z, -x+1/2'
  16  '-y+3/4, x+1/4, z+3/4'
  17  'z, x, y'
  18  'x+3/4, -z+1/4, y+3/4'
  19  '-z+1/2, -x+1/2, y'
  20  '-x+3/4, z+1/4, y+3/4'
  21  '-z+1/2, x, -y+1/2'
  22  '-x+3/4, -z+1/4, -y+3/4'
  23  'z, -x+1/2, -y+1/2'
  24  'x+3/4, z+1/4, -y+3/4'
  25  '-x+3/4, -y+1/4, -z+3/4'
  26  'z, -y+1/2, -x+1/2'
  27  'x+3/4, -y+1/4, z+3/4'
  28  '-z+1/2, -y+1/2, x'
  29  '-x+3/4, y+1/4, z+3/4'
  30  'z, y, x'
  31  'x+3/4, y+1/4, -z+3/4'
  32  '-z+1/2, y, -x+1/2'
  33  '-y+3/4, -z+1/4, -x+3/4'
  34  '-y+1/2, -x+1/2, z'
  35  '-y+3/4, z+1/4, x+3/4'
  36  '-y+1/2, x, -z+1/2'
  37  'y+3/4, z+1/4, -x+3/4'
  38  'y, x, z'
  39  'y+3/4, -z+1/4, x+3/4'
  40  'y, -x+1/2, -z+1/2'
  41  '-z+3/4, -x+1/4, -y+3/4'
  42  '-x+1/2, z, -y+1/2'
  43  'z+3/4, x+1/4, -y+3/4'
  44  'x, -z+1/2, -y+1/2'
  45  'z+3/4, -x+1/4, y+3/4'
  46  'x, z, y'
  47  '-z+3/4, x+1/4, y+3/4'
  48  '-x+1/2, -z+1/2, y'
  49  'x+1/2, y+1/2, z'
  50  '-z+1/4, y+3/4, x+3/4'
  51  '-x, y+1/2, -z+1/2'
  52  'z+1/4, y+3/4, -x+3/4'
  53  'x+1/2, -y, -z+1/2'
  54  '-z+1/4, -y+3/4, -x+3/4'
  55  '-x, -y, z'
  56  'z+1/4, -y+3/4, x+3/4'
  57  'y+1/2, z+1/2, x'
  58  'y+1/4, x+3/4, -z+3/4'
  59  'y+1/2, -z, -x+1/2'
  60  'y+1/4, -x+3/4, z+3/4'
  61  '-y, -z, x'
  62  '-y+1/4, -x+3/4, -z+3/4'
  63  '-y, z+1/2, -x+1/2'
  64  '-y+1/4, x+3/4, z+3/4'
  65  'z+1/2, x+1/2, y'
  66  'x+1/4, -z+3/4, y+3/4'
  67  '-z, -x, y'
  68  '-x+1/4, z+3/4, y+3/4'
  69  '-z, x+1/2, -y+1/2'
  70  '-x+1/4, -z+3/4, -y+3/4'
  71  'z+1/2, -x, -y+1/2'
  72  'x+1/4, z+3/4, -y+3/4'
  73  '-x+1/4, -y+3/4, -z+3/4'
  74  'z+1/2, -y, -x+1/2'
  75  'x+1/4, -y+3/4, z+3/4'
  76  '-z, -y, x'
  77  '-x+1/4, y+3/4, z+3/4'
  78  'z+1/2, y+1/2, x'
  79  'x+1/4, y+3/4, -z+3/4'
  80  '-z, y+1/2, -x+1/2'
  81  '-y+1/4, -z+3/4, -x+3/4'
  82  '-y, -x, z'
  83  '-y+1/4, z+3/4, x+3/4'
  84  '-y, x+1/2, -z+1/2'
  85  'y+1/4, z+3/4, -x+3/4'
  86  'y+1/2, x+1/2, z'
  87  'y+1/4, -z+3/4, x+3/4'
  88  'y+1/2, -x, -z+1/2'
  89  '-z+1/4, -x+3/4, -y+3/4'
  90  '-x, z+1/2, -y+1/2'
  91  'z+1/4, x+3/4, -y+3/4'
  92  'x+1/2, -z, -y+1/2'
  93  'z+1/4, -x+3/4, y+3/4'
  94  'x+1/2, z+1/2, y'
  95  '-z+1/4, x+3/4, y+3/4'
  96  '-x, -z, y'
  97  'x+1/2, y, z+1/2'
  98  '-z+1/4, y+1/4, x+1/4'
  99  '-x, y, -z'
  100  'z+1/4, y+1/4, -x+1/4'
  101  'x+1/2, -y+1/2, -z'
  102  '-z+1/4, -y+1/4, -x+1/4'
  103  '-x, -y+1/2, z+1/2'
  104  'z+1/4, -y+1/4, x+1/4'
  105  'y+1/2, z, x+1/2'
  106  'y+1/4, x+1/4, -z+1/4'
  107  'y+1/2, -z+1/2, -x'
  108  'y+1/4, -x+1/4, z+1/4'
  109  '-y, -z+1/2, x+1/2'
  110  '-y+1/4, -x+1/4, -z+1/4'
  111  '-y, z, -x'
  112  '-y+1/4, x+1/4, z+1/4'
  113  'z+1/2, x, y+1/2'
  114  'x+1/4, -z+1/4, y+1/4'
  115  '-z, -x+1/2, y+1/2'
  116  '-x+1/4, z+1/4, y+1/4'
  117  '-z, x, -y'
  118  '-x+1/4, -z+1/4, -y+1/4'
  119  'z+1/2, -x+1/2, -y'
  120  'x+1/4, z+1/4, -y+1/4'
  121  '-x+1/4, -y+1/4, -z+1/4'
  122  'z+1/2, -y+1/2, -x'
  123  'x+1/4, -y+1/4, z+1/4'
  124  '-z, -y+1/2, x+1/2'
  125  '-x+1/4, y+1/4, z+1/4'
  126  'z+1/2, y, x+1/2'
  127  'x+1/4, y+1/4, -z+1/4'
  128  '-z, y, -x'
  129  '-y+1/4, -z+1/4, -x+1/4'
  130  '-y, -x+1/2, z+1/2'
  131  '-y+1/4, z+1/4, x+1/4'
  132  '-y, x, -z'
  133  'y+1/4, z+1/4, -x+1/4'
  134  'y+1/2, x, z+1/2'
  135  'y+1/4, -z+1/4, x+1/4'
  136  'y+1/2, -x+1/2, -z'
  137  '-z+1/4, -x+1/4, -y+1/4'
  138  '-x, z, -y'
  139  'z+1/4, x+1/4, -y+1/4'
  140  'x+1/2, -z+1/2, -y'
  141  'z+1/4, -x+1/4, y+1/4'
  142  'x+1/2, z, y+1/2'
  143  '-z+1/4, x+1/4, y+1/4'
  144  '-x, -z+1/2, y+1/2'
  145  'x, y+1/2, z+1/2'
  146  '-z+3/4, y+3/4, x+1/4'
  147  '-x+1/2, y+1/2, -z'
  148  'z+3/4, y+3/4, -x+1/4'
  149  'x, -y, -z'
  150  '-z+3/4, -y+3/4, -x+1/4'
  151  '-x+1/2, -y, z+1/2'
  152  'z+3/4, -y+3/4, x+1/4'
  153  'y, z+1/2, x+1/2'
  154  'y+3/4, x+3/4, -z+1/4'
  155  'y, -z, -x'
  156  'y+3/4, -x+3/4, z+1/4'
  157  '-y+1/2, -z, x+1/2'
  158  '-y+3/4, -x+3/4, -z+1/4'
  159  '-y+1/2, z+1/2, -x'
  160  '-y+3/4, x+3/4, z+1/4'
  161  'z, x+1/2, y+1/2'
  162  'x+3/4, -z+3/4, y+1/4'
  163  '-z+1/2, -x, y+1/2'
  164  '-x+3/4, z+3/4, y+1/4'
  165  '-z+1/2, x+1/2, -y'
  166  '-x+3/4, -z+3/4, -y+1/4'
  167  'z, -x, -y'
  168  'x+3/4, z+3/4, -y+1/4'
  169  '-x+3/4, -y+3/4, -z+1/4'
  170  'z, -y, -x'
  171  'x+3/4, -y+3/4, z+1/4'
  172  '-z+1/2, -y, x+1/2'
  173  '-x+3/4, y+3/4, z+1/4'
  174  'z, y+1/2, x+1/2'
  175  'x+3/4, y+3/4, -z+1/4'
  176  '-z+1/2, y+1/2, -x'
  177  '-y+3/4, -z+3/4, -x+1/4'
  178  '-y+1/2, -x, z+1/2'
  179  '-y+3/4, z+3/4, x+1/4'
  180  '-y+1/2, x+1/2, -z'
  181  'y+3/4, z+3/4, -x+1/4'
  182  'y, x+1/2, z+1/2'
  183  'y+3/4, -z+3/4, x+1/4'
  184  'y, -x, -z'
  185  '-z+3/4, -x+3/4, -y+1/4'
  186  '-x+1/2, z+1/2, -y'
  187  'z+3/4, x+3/4, -y+1/4'
  188  'x, -z, -y'
  189  'z+3/4, -x+3/4, y+1/4'
  190  'x, z+1/2, y+1/2'
  191  '-z+3/4, x+3/4, y+1/4'
  192  '-x+1/2, -z, y+1/2'
loop_
 _atom_site_type_symbol
 _atom_site_label
 _atom_site_symmetry_multiplicity
 _atom_site_fract_x
 _atom_site_fract_y
 _atom_site_fract_z
 _atom_site_occupancy
  Si  Si1  8  0.000000  0.000000  0.500000  1
# generated using pymatgen
data_ID_5
_symmetry_space_group_name_H-M   P2_12_12_1
_cell_length_a   3.04361758
_cell_length_b   3.70810921
_cell_length_c   10.68411724
_cell_angle_alpha   90.00000000
_cell_angle_beta   90.00000000
_cell_angle_gamma   90.00000000
_symmetry_Int_Tables_number   19
_chemical_formula_structural   Si
_cell_volume   120.581656283
_cell_formula_units_Z   8
loop_
 _symmetry_equiv_pos_site_id
 _symmetry_equiv_pos_as_xyz
  1  'x, y, z'
  2  '-x+1/2, -y, z+1/2'
  3  'x+1/2, -y+1/2, -z'
  4  '-x, y+1/2, -z+1/2'
loop_
 _atom_site_type_symbol
 _atom_site_label
 _atom_site_symmetry_multiplicity
 _atom_site_fract_x
 _atom_site_fract_y
 _atom_site_fract_z
 _atom_site_occupancy
  Si  Si1  4  0.139048  0.010419  0.498843  1
  Si  Si2  4  0.233811  0.882194  0.748247  1
# generated using pymatgen
data_ID_7
_symmetry_space_group_name_H-M   P6mm
_cell_length_a   6.69881043
_cell_length_b   6.69881043
_cell_length_c   9.43255457
_cell_angle_alpha   90.00000000
_cell_angle_beta   90.00000000
_cell_angle_gamma   120.00000000
_symmetry_Int_Tables_number   183
_chemical_formula_structural   Si
_cell_volume   366.568661253
_cell_formula_units_Z   8
loop_
 _symmetry_equiv_pos_site_id
 _symmetry_equiv_pos_as_xyz
  1  'x, y, z'
  2  'x-y, x, z'
  3  '-y, x-y, z'
  4  '-x, -y, z'
  5  '-x+y, -x, z'
  6  'y, -x+y, z'
  7  'y, x, z'
  8  'x, x-y, z'
  9  'x-y, -y, z'
  10  '-y, -x, z'
  11  '-x, -x+y, z'
  12  '-x+y, y, z'
loop_
 _atom_site_type_symbol
 _atom_site_label
 _atom_site_symmetry_multiplicity
 _atom_site_fract_x
 _atom_site_fract_y
 _atom_site_fract_z
 _atom_site_occupancy
  Si  Si1  6  0.202126  0.404252  0.879160  1
  Si  Si2  2  0.333333  0.666667  0.684191  1
# generated using pymatgen
data_ID_8
_symmetry_space_group_name_H-M   P4/mmm
_cell_length_a   6.18772388
_cell_length_b   6.18772388
_cell_length_c   2.20576188
_cell_angle_alpha   90.00000000
_cell_angle_beta   90.00000000
_cell_angle_gamma   90.00000000
_symmetry_Int_Tables_number   123
_chemical_formula_structural   Si
_cell_volume   84.4540491292
_cell_formula_units_Z   1
loop_
 _symmetry_equiv_pos_site_id
 _symmetry_equiv_pos_as_xyz
  1  'x, y, z'
  2  '-x, -y, -z'
  3  '-y, x, z'
  4  'y, -x, -z'
  5  '-x, -y, z'
  6  'x, y, -z'
  7  'y, -x, z'
  8  '-y, x, -z'
  9  'x, -y, -z'
  10  '-x, y, z'
  11  '-y, -x, -z'
  12  'y, x, z'
  13  '-x, y, -z'
  14  'x, -y, z'
  15  'y, x, -z'
  16  '-y, -x, z'
loop_
 _atom_site_type_symbol
 _atom_site_label
 _atom_site_symmetry_multiplicity
 _atom_site_fract_x
 _atom_site_fract_y
 _atom_site_fract_z
 _atom_site_occupancy
  Si  Si1  1  0.500000  0.500000  0.500000  1
# generated using pymatgen
data_ID_9
_symmetry_space_group_name_H-M   P-3m1
_cell_length_a   7.50166581
_cell_length_b   7.50166581
_cell_length_c   2.45605057
_cell_angle_alpha   90.00000000
_cell_angle_beta   90.00000000
_cell_angle_gamma   120.00000000
_symmetry_Int_Tables_number   164
_chemical_formula_structural   Si
_cell_volume   119.697026392
_cell_formula_units_Z   8
loop_
 _symmetry_equiv_pos_site_id
 _symmetry_equiv_pos_as_xyz
  1  'x, y, z'
  2  '-x, -y, -z'
  3  '-x+y, -x, z'
  4  'x-y, x, -z'
  5  '-y, x-y, z'
  6  'y, -x+y, -z'
  7  'y, x, -z'
  8  '-y, -x, z'
  9  '-x, -x+y, -z'
  10  'x, x-y, z'
  11  'x-y, -y, -z'
  12  '-x+y, y, z'
loop_
 _atom_site_type_symbol
 _atom_site_label
 _atom_site_symmetry_multiplicity
 _atom_site_fract_x
 _atom_site_fract_y
 _atom_site_fract_z
 _atom_site_occupancy
  Si  Si1  6  0.000000  0.339468  0.000000  1
  Si  Si2  2  0.333333  0.666667  0.402964  1
# generated using pymatgen
data_ID_10
_symmetry_space_group_name_H-M   I4_1/a
_cell_length_a   6.67745789
_cell_length_b   6.67745789
_cell_length_c   6.52203479
_cell_angle_alpha   90.00000000
_cell_angle_beta   90.00000000
_cell_angle_gamma   90.00000000
_symmetry_Int_Tables_number   88
_chemical_formula_structural   Si
_cell_volume   290.807382273
_cell_formula_units_Z   16
loop_
 _symmetry_equiv_pos_site_id
 _symmetry_equiv_pos_as_xyz
  1  'x, y, z'
  2  'y+1/2, -x, z+3/4'
  3  '-x+1/2, -y+1/2, z+1/2'
  4  '-y+1/2, x, z+3/4'
  5  '-x+1/2, -y, -z+3/4'
  6  '-y+1/2, x+1/2, -z+1/2'
  7  'x+1/2, y, -z+3/4'
  8  'y, -x, -z'
  9  'x+1/2, y+1/2, z+1/2'
  10  'y, -x+1/2, z+1/4'
  11  '-x, -y, z'
  12  '-y, x+1/2, z+1/4'
  13  '-x, -y+1/2, -z+1/4'
  14  '-y, x, -z'
  15  'x, y+1/2, -z+1/4'
  16  'y+1/2, -x+1/2, -z+1/2'
loop_
 _atom_site_type_symbol
 _atom_site_label
 _atom_site_symmetry_multiplicity
 _atom_site_fract_x
 _atom_site_fract_y
 _atom_site_fract_z
 _atom_site_occupancy
  Si  Si1  16  0.096435  0.849041  0.241509  1
# generated using pymatgen
data_ID_3
_symmetry_space_group_name_H-M   P6/mmm
_cell_length_a   2.64958396
_cell_length_b   2.64958396
_cell_length_c   2.47080978
_cell_angle_alpha   90.00000000
_cell_angle_beta   90.00000000
_cell_angle_gamma   120.00000000
_symmetry_Int_Tables_number   191
_chemical_formula_structural   Si
_cell_volume   15.0219155378
_cell_formula_units_Z   1
loop_
 _symmetry_equiv_pos_site_id
 _symmetry_equiv_pos_as_xyz
  1  'x, y, z'
  2  '-x, -y, -z'
  3  'x-y, x, z'
  4  '-x+y, -x, -z'
  5  '-y, x-y, z'
  6  'y, -x+y, -z'
  7  '-x, -y, z'
  8  'x, y, -z'
  9  '-x+y, -x, z'
  10  'x-y, x, -z'
  11  'y, -x+y, z'
  12  '-y, x-y, -z'
  13  '-y, -x, -z'
  14  'y, x, z'
  15  '-x, -x+y, -z'
  16  'x, x-y, z'
  17  '-x+y, y, -z'
  18  'x-y, -y, z'
  19  'y, x, -z'
  20  '-y, -x, z'
  21  'x, x-y, -z'
  22  '-x, -x+y, z'
  23  'x-y, -y, -z'
  24  '-x+y, y, z'
loop_
 _atom_site_type_symbol
 _atom_site_label
 _atom_site_symmetry_multiplicity
 _atom_site_fract_x
 _atom_site_fract_y
 _atom_site_fract_z
 _atom_site_occupancy
  Si  Si1  1  0.000000  0.000000  0.500000  1
# generated using pymatgen
data_ID_6
_symmetry_space_group_name_H-M   P2
_cell_length_a   3.45744363
_cell_length_b   9.17505356
_cell_length_c   5.70634608
_cell_angle_alpha   90.00000000
_cell_angle_beta   94.95026662
_cell_angle_gamma   90.00000000
_symmetry_Int_Tables_number   3
_chemical_formula_structural   Si
_cell_volume   180.342823657
_cell_formula_units_Z   8
loop_
 _symmetry_equiv_pos_site_id
 _symmetry_equiv_pos_as_xyz
  1  'x, y, z'
  2  '-x, y, -z'
loop_
 _atom_site_type_symbol
 _atom_site_label
 _atom_site_symmetry_multiplicity
 _atom_site_fract_x
 _atom_site_fract_y
 _atom_site_fract_z
 _atom_site_occupancy
  Si  Si1  2  0.494474  0.658493  0.781291  1
  Si  Si2  1  0.000000  0.015883  0.000000  1
  Si  Si3  1  0.000000  0.260349  0.000000  1
  Si  Si4  1  0.000000  0.568444  0.500000  1
  Si  Si5  1  0.000000  0.777113  0.000000  1
  Si  Si6  1  0.500000  0.372610  0.500000  1
  Si  Si7  1  0.500000  0.426197  0.000000  1
# generated using pymatgen
data_ID_11
_symmetry_space_group_name_H-M   Im-3m
_cell_length_a   7.49416470
_cell_length_b   7.49416470
_cell_length_c   7.49416470
_cell_angle_alpha   90.00000000
_cell_angle_beta   90.00000000
_cell_angle_gamma   90.00000000
_symmetry_Int_Tables_number   229
_chemical_formula_structural   Si
_cell_volume   420.891059405
_cell_formula_units_Z   16
loop_
 _symmetry_equiv_pos_site_id
 _symmetry_equiv_pos_as_xyz
  1  'x, y, z'
  2  '-x, -y, -z'
  3  'x, -z, y'
  4  '-x, z, -y'
  5  'x, -y, -z'
  6  '-x, y, z'
  7  'x, z, -y'
  8  '-x, -z, y'
  9  '-x, -y, z'
  10  'x, y, -z'
  11  '-x, z, y'
  12  'x, -z, -y'
  13  '-x, y, -z'
  14  'x, -y, z'
  15  '-x, -z, -y'
  16  'x, z, y'
  17  'y, -z, -x'
  18  '-y, z, x'
  19  '-z, -y, -x'
  20  'z, y, x'
  21  '-y, z, -x'
  22  'y, -z, x'
  23  'z, y, -x'
  24  '-z, -y, x'
  25  '-y, -z, x'
  26  'y, z, -x'
  27  'z, -y, x'
  28  '-z, y, -x'
  29  'y, z, x'
  30  '-y, -z, -x'
  31  '-z, y, x'
  32  'z, -y, -x'
  33  '-z, x, -y'
  34  'z, -x, y'
  35  '-y, x, z'
  36  'y, -x, -z'
  37  'z, x, y'
  38  '-z, -x, -y'
  39  'y, x, -z'
  40  '-y, -x, z'
  41  '-z, -x, y'
  42  'z, x, -y'
  43  '-y, -x, -z'
  44  'y, x, z'
  45  'z, -x, -y'
  46  '-z, x, y'
  47  'y, -x, z'
  48  '-y, x, -z'
  49  'x+1/2, y+1/2, z+1/2'
  50  '-x+1/2, -y+1/2, -z+1/2'
  51  'x+1/2, -z+1/2, y+1/2'
  52  '-x+1/2, z+1/2, -y+1/2'
  53  'x+1/2, -y+1/2, -z+1/2'
  54  '-x+1/2, y+1/2, z+1/2'
  55  'x+1/2, z+1/2, -y+1/2'
  56  '-x+1/2, -z+1/2, y+1/2'
  57  '-x+1/2, -y+1/2, z+1/2'
  58  'x+1/2, y+1/2, -z+1/2'
  59  '-x+1/2, z+1/2, y+1/2'
  60  'x+1/2, -z+1/2, -y+1/2'
  61  '-x+1/2, y+1/2, -z+1/2'
  62  'x+1/2, -y+1/2, z+1/2'
  63  '-x+1/2, -z+1/2, -y+1/2'
  64  'x+1/2, z+1/2, y+1/2'
  65  'y+1/2, -z+1/2, -x+1/2'
  66  '-y+1/2, z+1/2, x+1/2'
  67  '-z+1/2, -y+1/2, -x+1/2'
  68  'z+1/2, y+1/2, x+1/2'
  69  '-y+1/2, z+1/2, -x+1/2'
  70  'y+1/2, -z+1/2, x+1/2'
  71  'z+1/2, y+1/2, -x+1/2'
  72  '-z+1/2, -y+1/2, x+1/2'
  73  '-y+1/2, -z+1/2, x+1/2'
  74  'y+1/2, z+1/2, -x+1/2'
  75  'z+1/2, -y+1/2, x+1/2'
  76  '-z+1/2, y+1/2, -x+1/2'
  77  'y+1/2, z+1/2, x+1/2'
  78  '-y+1/2, -z+1/2, -x+1/2'
  79  '-z+1/2, y+1/2, x+1/2'
  80  'z+1/2, -y+1/2, -x+1/2'
  81  '-z+1/2, x+1/2, -y+1/2'
  82  'z+1/2, -x+1/2, y+1/2'
  83  '-y+1/2, x+1/2, z+1/2'
  84  'y+1/2, -x+1/2, -z+1/2'
  85  'z+1/2, x+1/2, y+1/2'
  86  '-z+1/2, -x+1/2, -y+1/2'
  87  'y+1/2, x+1/2, -z+1/2'
  88  '-y+1/2, -x+1/2, z+1/2'
  89  '-z+1/2, -x+1/2, y+1/2'
  90  'z+1/2, x+1/2, -y+1/2'
  91  '-y+1/2, -x+1/2, -z+1/2'
  92  'y+1/2, x+1/2, z+1/2'
  93  'z+1/2, -x+1/2, -y+1/2'
  94  '-z+1/2, x+1/2, y+1/2'
  95  'y+1/2, -x+1/2, z+1/2'
  96  '-y+1/2, x+1/2, -z+1/2'
loop_
 _atom_site_type_symbol
 _atom_site_label
 _atom_site_symmetry_multiplicity
 _atom_site_fract_x
 _atom_site_fract_y
 _atom_site_fract_z
 _atom_site_occupancy
  Si  Si1  16  0.159956  0.840044  0.840044  1
# generated using pymatgen
data_ID_12
_symmetry_space_group_name_H-M   P2_1/c
_cell_length_a   5.35880620
_cell_length_b   5.09048609
_cell_length_c   7.26529519
_cell_angle_alpha   90.00000000
_cell_angle_beta   114.33888503
_cell_angle_gamma   90.00000000
_symmetry_Int_Tables_number   14
_chemical_formula_structural   Si
_cell_volume   180.575137212
_cell_formula_units_Z   8
loop_
 _symmetry_equiv_pos_site_id
 _symmetry_equiv_pos_as_xyz
  1  'x, y, z'
  2  '-x, -y, -z'
  3  '-x, y+1/2, -z+1/2'
  4  'x, -y+1/2, z+1/2'
loop_
 _atom_site_type_symbol
 _atom_site_label
 _atom_site_symmetry_multiplicity
 _atom_site_fract_x
 _atom_site_fract_y
 _atom_site_fract_z
 _atom_site_occupancy
  Si  Si1  4  0.066362  0.687486  0.602978  1
  Si  Si2  4  0.262323  0.528404  0.939820  1
# generated using pymatgen
data_ID_14
_symmetry_space_group_name_H-M   Pm-3m
_cell_length_a   2.53141217
_cell_length_b   2.53141217
_cell_length_c   2.53141217
_cell_angle_alpha   90.00000000
_cell_angle_beta   90.00000000
_cell_angle_gamma   90.00000000
_symmetry_Int_Tables_number   221
_chemical_formula_structural   Si
_cell_volume   16.2214096948
_cell_formula_units_Z   1
loop_
 _symmetry_equiv_pos_site_id
 _symmetry_equiv_pos_as_xyz
  1  'x, y, z'
  2  '-x, -y, -z'
  3  '-y, x, z'
  4  'y, -x, -z'
  5  '-x, -y, z'
  6  'x, y, -z'
  7  'y, -x, z'
  8  '-y, x, -z'
  9  'x, -y, -z'
  10  '-x, y, z'
  11  '-y, -x, -z'
  12  'y, x, z'
  13  '-x, y, -z'
  14  'x, -y, z'
  15  'y, x, -z'
  16  '-y, -x, z'
  17  'z, x, y'
  18  '-z, -x, -y'
  19  'z, -y, x'
  20  '-z, y, -x'
  21  'z, -x, -y'
  22  '-z, x, y'
  23  'z, y, -x'
  24  '-z, -y, x'
  25  '-z, x, -y'
  26  'z, -x, y'
  27  '-z, -y, -x'
  28  'z, y, x'
  29  '-z, -x, y'
  30  'z, x, -y'
  31  '-z, y, x'
  32  'z, -y, -x'
  33  'y, z, x'
  34  '-y, -z, -x'
  35  'x, z, -y'
  36  '-x, -z, y'
  37  '-y, z, -x'
  38  'y, -z, x'
  39  '-x, z, y'
  40  'x, -z, -y'
  41  '-y, -z, x'
  42  'y, z, -x'
  43  '-x, -z, -y'
  44  'x, z, y'
  45  'y, -z, -x'
  46  '-y, z, x'
  47  'x, -z, y'
  48  '-x, z, -y'
loop_
 _atom_site_type_symbol
 _atom_site_label
 _atom_site_symmetry_multiplicity
 _atom_site_fract_x
 _atom_site_fract_y
 _atom_site_fract_z
 _atom_site_occupancy
  Si  Si1  1  0.500000  0.500000  0.500000  1
# generated using pymatgen
data_ID_18
_symmetry_space_group_name_H-M   Pnnn
_cell_length_a   4.76383658
_cell_length_b   6.54109998
_cell_length_c   6.85279529
_cell_angle_alpha   90.00000000
_cell_angle_beta   90.00000000
_cell_angle_gamma   90.00000000
_symmetry_Int_Tables_number   48
_chemical_formula_structural   Si
_cell_volume   213.538112989
_cell_formula_units_Z   8
loop_
 _symmetry_equiv_pos_site_id
 _symmetry_equiv_pos_as_xyz
  1  'x, y, z'
  2  '-x, -y, z'
  3  'x, -y, -z'
  4  '-x, y, -z'
  5  '-x+1/2, -y+1/2, -z+1/2'
  6  'x+1/2, y+1/2, -z+1/2'
  7  '-x+1/2, y+1/2, z+1/2'
  8  'x+1/2, -y+1/2, z+1/2'
loop_
 _atom_site_type_symbol
 _atom_site_label
 _atom_site_symmetry_multiplicity
 _atom_site_fract_x
 _atom_site_fract_y
 _atom_site_fract_z
 _atom_site_occupancy
  Si  Si1  4  0.214515  0.500000  0.000000  1
  Si  Si2  4  0.250000  0.250000  0.250000  1
# generated using pymatgen
data_ID_19
_symmetry_space_group_name_H-M   Pmmn
_cell_length_a   4.09185482
_cell_length_b   4.44836950
_cell_length_c   7.58102964
_cell_angle_alpha   90.00000000
_cell_angle_beta   90.00000000
_cell_angle_gamma   90.00000000
_symmetry_Int_Tables_number   59
_chemical_formula_structural   Si
_cell_volume   137.990524483
_cell_formula_units_Z   8
loop_
 _symmetry_equiv_pos_site_id
 _symmetry_equiv_pos_as_xyz
  1  'x, y, z'
  2  '-x, -y, z'
  3  'x+1/2, -y+1/2, -z'
  4  '-x+1/2, y+1/2, -z'
  5  '-x+1/2, -y+1/2, -z'
  6  'x+1/2, y+1/2, -z'
  7  '-x, y, z'
  8  'x, -y, z'
loop_
 _atom_site_type_symbol
 _atom_site_label
 _atom_site_symmetry_multiplicity
 _atom_site_fract_x
 _atom_site_fract_y
 _atom_site_fract_z
 _atom_site_occupancy
  Si  Si1  2  0.000000  0.000000  0.152391  1
  Si  Si2  2  0.000000  0.000000  0.509886  1
  Si  Si3  2  0.000000  0.000000  0.833341  1
  Si  Si4  2  0.000000  0.500000  0.671989  1
# generated using pymatgen
data_ID_13
_symmetry_space_group_name_H-M   P6/mmm
_cell_length_a   3.90127684
_cell_length_b   3.90127684
_cell_length_c   9.02654903
_cell_angle_alpha   90.00000000
_cell_angle_beta   90.00000000
_cell_angle_gamma   120.00000000
_symmetry_Int_Tables_number   191
_chemical_formula_structural   Si
_cell_volume   118.97779516
_cell_formula_units_Z   2
loop_
 _symmetry_equiv_pos_site_id
 _symmetry_equiv_pos_as_xyz
  1  'x, y, z'
  2  '-x, -y, -z'
  3  'x-y, x, z'
  4  '-x+y, -x, -z'
  5  '-y, x-y, z'
  6  'y, -x+y, -z'
  7  '-x, -y, z'
  8  'x, y, -z'
  9  '-x+y, -x, z'
  10  'x-y, x, -z'
  11  'y, -x+y, z'
  12  '-y, x-y, -z'
  13  '-y, -x, -z'
  14  'y, x, z'
  15  '-x, -x+y, -z'
  16  'x, x-y, z'
  17  '-x+y, y, -z'
  18  'x-y, -y, z'
  19  'y, x, -z'
  20  '-y, -x, z'
  21  'x, x-y, -z'
  22  '-x, -x+y, z'
  23  'x-y, -y, -z'
  24  '-x+y, y, z'
loop_
 _atom_site_type_symbol
 _atom_site_label
 _atom_site_symmetry_multiplicity
 _atom_site_fract_x
 _atom_site_fract_y
 _atom_site_fract_z
 _atom_site_occupancy
  Si  Si1  2  0.333333  0.666667  0.000000  1
# generated using pymatgen
data_ID_15
_symmetry_space_group_name_H-M   P4/mmm
_cell_length_a   4.83520286
_cell_length_b   4.83520286
_cell_length_c   8.13468749
_cell_angle_alpha   90.00000000
_cell_angle_beta   90.00000000
_cell_angle_gamma   90.00000000
_symmetry_Int_Tables_number   123
_chemical_formula_structural   Si
_cell_volume   190.182377325
_cell_formula_units_Z   8
loop_
 _symmetry_equiv_pos_site_id
 _symmetry_equiv_pos_as_xyz
  1  'x, y, z'
  2  '-x, -y, -z'
  3  '-y, x, z'
  4  'y, -x, -z'
  5  '-x, -y, z'
  6  'x, y, -z'
  7  'y, -x, z'
  8  '-y, x, -z'
  9  'x, -y, -z'
  10  '-x, y, z'
  11  '-y, -x, -z'
  12  'y, x, z'
  13  '-x, y, -z'
  14  'x, -y, z'
  15  'y, x, -z'
  16  '-y, -x, z'
loop_
 _atom_site_type_symbol
 _atom_site_label
 _atom_site_symmetry_multiplicity
 _atom_site_fract_x
 _atom_site_fract_y
 _atom_site_fract_z
 _atom_site_occupancy
  Si  Si1  4  0.239496  0.239496  0.500000  1
  Si  Si2  2  0.500000  0.500000  0.290328  1
  Si  Si3  1  0.000000  0.000000  0.000000  1
  Si  Si4  1  0.500000  0.500000  0.000000  1
# generated using pymatgen
data_ID_16
_symmetry_space_group_name_H-M   P4/mmm
_cell_length_a   3.98006465
_cell_length_b   3.98006465
_cell_length_c   5.28934052
_cell_angle_alpha   90.00000000
_cell_angle_beta   90.00000000
_cell_angle_gamma   90.00000000
_symmetry_Int_Tables_number   123
_chemical_formula_structural   Si
_cell_volume   83.7879914352
_cell_formula_units_Z   4
loop_
 _symmetry_equiv_pos_site_id
 _symmetry_equiv_pos_as_xyz
  1  'x, y, z'
  2  '-x, -y, -z'
  3  '-y, x, z'
  4  'y, -x, -z'
  5  '-x, -y, z'
  6  'x, y, -z'
  7  'y, -x, z'
  8  '-y, x, -z'
  9  'x, -y, -z'
  10  '-x, y, z'
  11  '-y, -x, -z'
  12  'y, x, z'
  13  '-x, y, -z'
  14  'x, -y, z'
  15  'y, x, -z'
  16  '-y, -x, z'
loop_
 _atom_site_type_symbol
 _atom_site_label
 _atom_site_symmetry_multiplicity
 _atom_site_fract_x
 _atom_site_fract_y
 _atom_site_fract_z
 _atom_site_occupancy
  Si  Si1  2  0.000000  0.000000  0.280688  1
  Si  Si2  2  0.000000  0.500000  0.000000  1
# generated using pymatgen
data_ID_17
_symmetry_space_group_name_H-M   I4/mmm
_cell_length_a   2.55722249
_cell_length_b   2.55722249
_cell_length_c   4.51647364
_cell_angle_alpha   90.00000000
_cell_angle_beta   90.00000000
_cell_angle_gamma   90.00000000
_symmetry_Int_Tables_number   139
_chemical_formula_structural   Si
_cell_volume   29.5349683997
_cell_formula_units_Z   2
loop_
 _symmetry_equiv_pos_site_id
 _symmetry_equiv_pos_as_xyz
  1  'x, y, z'
  2  '-x, -y, -z'
  3  '-y, x, z'
  4  'y, -x, -z'
  5  '-x, -y, z'
  6  'x, y, -z'
  7  'y, -x, z'
  8  '-y, x, -z'
  9  'x, -y, -z'
  10  '-x, y, z'
  11  '-y, -x, -z'
  12  'y, x, z'
  13  '-x, y, -z'
  14  'x, -y, z'
  15  'y, x, -z'
  16  '-y, -x, z'
  17  'x+1/2, y+1/2, z+1/2'
  18  '-x+1/2, -y+1/2, -z+1/2'
  19  '-y+1/2, x+1/2, z+1/2'
  20  'y+1/2, -x+1/2, -z+1/2'
  21  '-x+1/2, -y+1/2, z+1/2'
  22  'x+1/2, y+1/2, -z+1/2'
  23  'y+1/2, -x+1/2, z+1/2'
  24  '-y+1/2, x+1/2, -z+1/2'
  25  'x+1/2, -y+1/2, -z+1/2'
  26  '-x+1/2, y+1/2, z+1/2'
  27  '-y+1/2, -x+1/2, -z+1/2'
  28  'y+1/2, x+1/2, z+1/2'
  29  '-x+1/2, y+1/2, -z+1/2'
  30  'x+1/2, -y+1/2, z+1/2'
  31  'y+1/2, x+1/2, -z+1/2'
  32  '-y+1/2, -x+1/2, z+1/2'
loop_
 _atom_site_type_symbol
 _atom_site_label
 _atom_site_symmetry_multiplicity
 _atom_site_fract_x
 _atom_site_fract_y
 _atom_site_fract_z
 _atom_site_occupancy
  Si  Si1  2  0.000000  0.000000  0.500000  1
